ams/cases/hawaii40/Hawaii40.AUX
PWCaseInformation (Selected)
{
"NO "
   <SUBDATA PWCaseHeader>
     //Case Description
   </SUBDATA>
}
Owner (Number,Name,DataMaintainerAssign)
{
       1 "1" ""
}
Substation (Number,Name,IDExtra,Latitude,Longitude,DataMaintainerAssign,
   DataMaintainerInheritBlock)
{
       1 "ALOHA" "1" 21.3442460000000 -157.939889000000 "" "NO "
       2 "FLOWER" "2" 21.3479270000000 -157.876274000000 "" "NO "
       3 "WAVE" "3" 21.2931430000000 -157.848767000000 "" "NO "
       4 "HONOLULU" "4" 21.3165480000000 -157.845053000000 "" "NO "
       5 "SURF" "5" 21.2915180000000 -157.826869000000 "" "NO "
       6 "KANEOHE" "6" 21.4517330000000 -157.824227000000 "" "NO "
       7 "TURTLE" "7" 21.2734620000000 -157.822444000000 "" "NO "
       8 "MAHALO" "8" 21.3554800000000 -157.821663000000 "" "NO "
       9 "LYCHEE" "9" 21.3202100000000 -157.810758000000 "" "NO "
      10 "COCONUT" "10" 21.2906120000000 -157.788328000000 "" "NO "
      11 "KAILUA" "11" 21.3950840000000 -157.758188000000 "" "NO "
      12 "PALM" "12" 21.3110630000000 -157.750269000000 "" "NO "
      13 "WAIMANALO" "13" 21.3350130000000 -157.710924000000 "" "NO "
      14 "VOLCANO" "14" 21.2945180000000 -157.688748000000 "" "NO "
      15 "PEARL CITY" "15" 21.4173740000000 -157.936867000000 "" "NO "
      16 "MILILANI" "16" 21.4825310000000 -157.934221000000 "" "NO "
      17 "AIEA" "17" 21.4060530000000 -157.884952000000 "" "NO "
      18 "WAIPAHU" "18" 21.4174690000000 -157.983838000000 "" "NO "
      19 "KAPOLEI" "19" 21.3631060000000 -158.082206000000 "" "NO "
      20 "EWA BEACH" "20" 21.3447560000000 -158.022282000000 "" "NO "
      21 "KAHUKU" "21" 21.6586920000000 -157.978792000000 "" "NO "
      22 "HALEIWA" "22" 21.6213670000000 -158.048011000000 "" "NO "
      23 "LAIE" "23" 21.6184790000000 -157.943953000000 "" "NO "
      24 "WAHIAWA" "24" 21.5713900000000 -157.979384000000 "" "NO "
      25 "WAIALUA" "25" 21.5636400000000 -158.185151000000 "" "NO "
      26 "HAUULA" "26" 21.5577500000000 -157.905396000000 "" "NO "
      27 "WAIANAE" "27" 21.4686260000000 -158.166919000000 "" "NO "
      28 "SCHOFIELD" "28" 21.4785000000000 -158.058100000000 "" "NO "
      29 "KALAELOA" "29" 21.3034190000000 -158.106528000000 "" "NO "
      30 "COGEN" "30" 21.3116670000000 -158.113889000000 "" "NO "
      31 "KAHE" "31" 21.3563950000000 -158.128853000000 "" "NO "
}
Limit_Monitoring_Options_Value (Option,Value)
{
"LMS_IgnoreRadial"                 "NO"
}
LimitSet (Name,Disabled,DataMaintainerAssign,AmpMVA,MonitorEnd,BranchPercent,
   InterfacePercent,BranchRateSet,InterfaceRateSet,BranchRateSetCTG,
   InterfaceRateSetCTG,HighVolt,LowVolt,HighVoltCTG,LowVoltCTG,HighVoltRateSet,
   LowVoltRateSet,HighVoltRateSetCTG,LowVoltRateSetCTG)
{
"Default" "NO " "" "MVA" "Higher" 100.0000 100.0000 "A" "A" "A" "A" 1.100000 0.900000 1.100000 0.900000 "A" "A" "A" "A"
}
RatingSetNameBus (Name,Header,Description)
{
"A" "" ""
"B" "" ""
"C" "" ""
"D" "" ""
}
RatingSetNameBranch (Name,Header,Description)
{
"A" "" ""
"B" "" ""
"C" "" ""
"D" "" ""
"E" "" ""
"F" "" ""
"G" "" ""
"H" "" ""
"I" "" ""
"J" "" ""
"K" "" ""
"L" "" ""
"M" "" ""
"N" "" ""
"O" "" ""
}
RatingSetNameInterface (Name,Header,Description)
{
"A" "" ""
"B" "" ""
"C" "" ""
"D" "" ""
"E" "" ""
"F" "" ""
"G" "" ""
"H" "" ""
"I" "" ""
"J" "" ""
"K" "" ""
"L" "" ""
"M" "" ""
"N" "" ""
"O" "" ""
}
RatingSetNameBusPair (Name,Header,Description)
{
"A" "" ""
"B" "" ""
"C" "" ""
"D" "" ""
}
Bus (Number,Name,NomkV,Slack,NomB,NomG,Vpu,Vangle,DCLossMultiplier,AreaNumber,
   ZoneNumber,BANumber,OwnerNumber,SubNumber,Monitor,LimitSet,UseSpecificLimits,
   LimitLowA,LimitLowB,LimitLowC,LimitLowD,LimitHighA,LimitHighB,LimitHighC,
   LimitHighD,Latitude,Longitude,TopologyBusType,Priority,EMSType,EMSID,
   DataMaintainerAssign,DataMaintainerInherit,DataMaintainerInheritBlock,
   AllLabels)
{
     1 "ALOHA138"     138.0000 "NO "    0.00000    0.00000 0.99354527  -1.1199067 1.000000      1      1      1      1 1 "YES" "Default" "NO " "" "" "" "" "" "" "" "" "" "" "BusbarSection" 0 "" "" "" "YES" "NO " ""
     2 "ALOHA69"      69.0000 "NO "    0.00000    0.00000 0.99122501  -3.9273715 1.000000      1      1      1      1 1 "YES" "Default" "NO " "" "" "" "" "" "" "" "" "" "" "BusbarSection" 0 "" "" "" "YES" "NO " ""
     3 "FLOWER69"     69.0000 "NO "    0.00000    0.00000 0.98454765  -4.7311447 1.000000      1      1      1      1 2 "YES" "Default" "NO " "" "" "" "" "" "" "" "" "" "" "BusbarSection" 0 "" "" "" "YES" "NO " ""
     4 "WAVE69"       69.0000 "NO "    0.00000    0.00000 0.97879987  -5.7458704 1.000000      1      1      1      1 3 "YES" "Default" "NO " "" "" "" "" "" "" "" "" "" "" "BusbarSection" 0 "" "" "" "YES" "NO " ""
     5 "HONOLULU138"  138.0000 "NO "    0.00000    0.00000 0.98898469  -2.0697925 1.000000      1      1      1      1 4 "YES" "Default" "NO " "" "" "" "" "" "" "" "" "" "" "BusbarSection" 0 "" "" "" "YES" "NO " ""
     6 "HONOLULU69"   69.0000 "NO "    0.00000    0.00000 0.98120641  -5.5281596 1.000000      1      1      1      1 4 "YES" "Default" "NO " "" "" "" "" "" "" "" "" "" "" "BusbarSection" 0 "" "" "" "YES" "NO " ""
     7 "SURF69"       69.0000 "NO "    0.00000    0.00000 0.98058261  -5.6713367 1.000000      1      1      1      1 5 "YES" "Default" "NO " "" "" "" "" "" "" "" "" "" "" "BusbarSection" 0 "" "" "" "YES" "NO " ""
     8 "KANEOHE69"    69.0000 "NO "    0.00000    0.00000 0.97861867  -5.7023810 1.000000      1      1      1      1 6 "YES" "Default" "NO " "" "" "" "" "" "" "" "" "" "" "BusbarSection" 0 "" "" "" "YES" "NO " ""
     9 "TURTLE138"    138.0000 "NO "    0.00000    0.00000 0.98676778  -2.5483593 1.000000      1      1      1      1 7 "YES" "Default" "NO " "" "" "" "" "" "" "" "" "" "" "BusbarSection" 0 "" "" "" "YES" "NO " ""
    10 "TURTLE69"     69.0000 "NO "    0.00000    0.00000 0.98094097  -5.6519597 1.000000      1      1      1      1 7 "YES" "Default" "NO " "" "" "" "" "" "" "" "" "" "" "BusbarSection" 0 "" "" "" "YES" "NO " ""
    11 "MAHALO69"     69.0000 "NO "    0.00000    0.00000 0.97491150  -6.5229550 1.000000      1      1      1      1 8 "YES" "Default" "NO " "" "" "" "" "" "" "" "" "" "" "BusbarSection" 0 "" "" "" "YES" "NO " ""
    12 "LYCHEE69"     69.0000 "NO "    0.00000    0.00000 0.97732693  -6.1983537 1.000000      1      1      1      1 9 "YES" "Default" "NO " "" "" "" "" "" "" "" "" "" "" "BusbarSection" 0 "" "" "" "YES" "NO " ""
    13 "COCONUT69"    69.0000 "NO "    0.00000    0.00000 0.97895299  -6.0948160 1.000000      1      1      1      1 10 "YES" "Default" "NO " "" "" "" "" "" "" "" "" "" "" "BusbarSection" 0 "" "" "" "YES" "NO " ""
    14 "KAILUA138"    138.0000 "NO "    0.00000    0.00000 0.98376412  -3.1362050 1.000000      1      1      1      1 11 "YES" "Default" "NO " "" "" "" "" "" "" "" "" "" "" "BusbarSection" 0 "" "" "" "YES" "NO " ""
    15 "KAILUA69"     69.0000 "NO "    0.00000    0.00000 0.97863114  -6.0297629 1.000000      1      1      1      1 11 "YES" "Default" "NO " "" "" "" "" "" "" "" "" "" "" "BusbarSection" 0 "" "" "" "YES" "NO " ""
    16 "PALM69"       69.0000 "NO "    0.00000    0.00000 0.98218664  -6.4560319 1.000000      1      1      1      1 12 "YES" "Default" "NO " "" "" "" "" "" "" "" "" "" "" "BusbarSection" 0 "" "" "" "YES" "NO " ""
    17 "WAIMANALO69"  69.0000 "NO "    0.00000    0.00000 0.97549565  -6.9819040 1.000000      1      1      1      1 13 "YES" "Default" "NO " "" "" "" "" "" "" "" "" "" "" "BusbarSection" 0 "" "" "" "YES" "NO " ""
    18 "VOLCANO69"    69.0000 "NO "    0.00000    0.00000 0.97596044  -7.1211496 1.000000      1      1      1      1 14 "YES" "Default" "NO " "" "" "" "" "" "" "" "" "" "" "BusbarSection" 0 "" "" "" "YES" "NO " ""
    19 "PEARL CITY69" 69.0000 "NO "    0.00000    0.00000 0.99130400  -3.5142215 1.000000      1      1      1      1 15 "YES" "Default" "NO " "" "" "" "" "" "" "" "" "" "" "BusbarSection" 0 "" "" "" "YES" "NO " ""
    20 "MILILANI69"   69.0000 "NO "    0.00000    0.00000 0.98966032  -1.9639507 1.000000      1      1      1      1 16 "YES" "Default" "NO " "" "" "" "" "" "" "" "" "" "" "BusbarSection" 0 "" "" "" "YES" "NO " ""
    21 "AIEA69"       69.0000 "NO "    0.00000    0.00000 0.97994218  -5.2681573 1.000000      1      1      1      1 17 "YES" "Default" "NO " "" "" "" "" "" "" "" "" "" "" "BusbarSection" 0 "" "" "" "YES" "NO " ""
    22 "WAIPAHU138"   138.0000 "NO "    0.00000    0.00000 0.99639741  -0.8445477 1.000000      1      1      1      1 18 "YES" "Default" "NO " "" "" "" "" "" "" "" "" "" "" "BusbarSection" 0 "" "" "" "YES" "NO " ""
    23 "WAIPAHU69"    69.0000 "YES"    0.00000    0.00000 1.00000000  -2.1060154 1.000000      1      1      1      1 18 "YES" "Default" "NO " "" "" "" "" "" "" "" "" "" "" "BusbarSection" 0 "" "" "" "YES" "NO " ""
    24 "KAPOLEI69"    69.0000 "NO "    0.00000    0.00000 0.99340196  -3.7068507 1.000000      1      1      1      1 19 "YES" "Default" "NO " "" "" "" "" "" "" "" "" "" "" "BusbarSection" 0 "" "" "" "YES" "NO " ""
    25 "EWA BEACH138" 138.0000 "NO "    0.00000    0.00000 0.99661407  -0.5287634 1.000000      1      1      1      1 20 "YES" "Default" "NO " "" "" "" "" "" "" "" "" "" "" "BusbarSection" 0 "" "" "" "YES" "NO " ""
    26 "EWA BEACH69"  69.0000 "NO "    0.00000    0.00000 0.99510457  -3.5968657 1.000000      1      1      1      1 20 "YES" "Default" "NO " "" "" "" "" "" "" "" "" "" "" "BusbarSection" 0 "" "" "" "YES" "NO " ""
    27 "KAHUKU69"     69.0000 "NO "    0.00000    0.00000 1.00341637   1.3626940 1.000000      1      1      1      1 21 "YES" "Default" "NO " "" "" "" "" "" "" "" "" "" "" "BusbarSection" 0 "" "" "" "YES" "NO " ""
    28 "HALEIWA69"    69.0000 "NO "    0.00000    0.00000 1.00000000   0.2340553 1.000000      1      1      1      1 22 "YES" "Default" "NO " "" "" "" "" "" "" "" "" "" "" "BusbarSection" 0 "" "" "" "YES" "NO " ""
    29 "LAIE69"       69.0000 "NO "    0.00000    0.00000 0.99538335  -0.0972735 1.000000      1      1      1      1 23 "YES" "Default" "NO " "" "" "" "" "" "" "" "" "" "" "BusbarSection" 0 "" "" "" "YES" "NO " ""
    30 "WAHIAWA69"    69.0000 "NO "    0.00000    0.00000 0.99579833  -0.4223443 1.000000      1      1      1      1 24 "YES" "Default" "NO " "" "" "" "" "" "" "" "" "" "" "BusbarSection" 0 "" "" "" "YES" "NO " ""
    31 "WAIALUA69"    69.0000 "NO "    0.00000    0.00000 0.99521499  -2.1017756 1.000000      1      1      1      1 25 "YES" "Default" "NO " "" "" "" "" "" "" "" "" "" "" "BusbarSection" 0 "" "" "" "YES" "NO " ""
    32 "HAUULA69"     69.0000 "NO "    0.00000    0.00000 0.99121669  -1.3211571 1.000000      1      1      1      1 26 "YES" "Default" "NO " "" "" "" "" "" "" "" "" "" "" "BusbarSection" 0 "" "" "" "YES" "NO " ""
    33 "WAIANAE69"    69.0000 "NO "    0.00000    0.00000 0.99565201  -3.0503675 1.000000      1      1      1      1 27 "YES" "Default" "NO " "" "" "" "" "" "" "" "" "" "" "BusbarSection" 0 "" "" "" "YES" "NO " ""
    34 "SCHOFIELD69"  69.0000 "NO "    0.00000    0.00000 1.00000000  -2.0842315 1.000000      1      1      1      1 28 "YES" "Default" "NO " "" "" "" "" "" "" "" "" "" "" "BusbarSection" 0 "" "" "" "YES" "NO " ""
    35 "KALAELOA138"  138.0000 "NO "    0.00000    0.00000 1.00000000   0.3763900 1.000000      1      1      1      1 29 "YES" "Default" "NO " "" "" "" "" "" "" "" "" "" "" "BusbarSection" 0 "" "" "" "YES" "NO " ""
    36 "COGEN69"      69.0000 "NO "    0.00000    0.00000 0.99657240  -3.5652418 1.000000      1      1      1      1 30 "YES" "Default" "NO " "" "" "" "" "" "" "" "" "" "" "BusbarSection" 0 "" "" "" "YES" "NO " ""
    37 "KAHE138"      138.0000 "NO "    0.00000    0.00000 1.00000000   0.2514300 1.000000      1      1      1      1 31 "YES" "Default" "NO " "" "" "" "" "" "" "" "" "" "" "BusbarSection" 0 "" "" "" "YES" "NO " ""
}
Gen (BusNum,ID,Status,VoltSet,VoltSetTol,RegBusNum,RegFactor,AGC,PartFact,MWSetPoint,
   MWMax,MWMin,EnforceMWLimit,AVR,MvarSetPoint,MvarMax,MvarMin,UseCapCurve,
   WindContMode,WindContModePF,UseLineDrop,Rcomp,Xcomp,VoltageDroopControl,
   MVABase,GenR,GenX,StepR,StepX,StepTap,GovRespLimit,UnitTypeCode,FuelTypeCode,
   AreaNumber,ZoneNumber,BANumber,OwnerNum1,OwnerPerc1,OwnerNum2,OwnerPerc2,
   OwnerNum3,OwnerPerc3,OwnerNum4,OwnerPerc4,OwnerNum5,OwnerPerc5,OwnerNum6,
   OwnerPerc6,OwnerNum7,OwnerPerc7,OwnerNum8,OwnerPerc8,EMSType,EMSID,
   DataMaintainerAssign,DataMaintainerInherit,AllLabels,CustomFloat:0,
   CustomFloat:1,CustomFloat:2)
{
     2 "1" "Closed" 1.00000 0.00000      2 100.00000 "YES"    0.00000    2.50000    2.50000    1.00000 "YES" "YES"    0.80000    0.80000   -0.50000 "NO " "None" 1.000000 "NO"      0.000000 0.000100 ""   2.8000 0.000000 1.000000 0.000000 0.000000 1.000000 "Normal"    "UN" "OBL"      1      1      1     1 100.000 "" "" "" "" "" "" "" "" "" "" "" "" "" "" "" "" "" "YES" ""     0.000000     0.000000     0.000000
     2 "2" "Closed" 1.00000 0.00000      2 100.00000 "YES"    0.00000    2.50000    2.50000    1.00000 "YES" "YES"    0.80000    0.80000   -0.50000 "NO " "None" 1.000000 "NO"      0.000000 0.000100 ""   2.8000 0.000000 1.000000 0.000000 0.000000 1.000000 "Normal"    "UN" "OBL"      1      1      1     1 100.000 "" "" "" "" "" "" "" "" "" "" "" "" "" "" "" "" "" "YES" ""     0.000000     0.000000     0.000000
     2 "3" "Closed" 1.00000 0.00000      2 100.00000 "YES"    0.00000    2.50000    2.50000    1.00000 "YES" "YES"    0.80000    0.80000   -0.50000 "NO " "None" 1.000000 "NO"      0.000000 0.000100 ""   2.8000 0.000000 1.000000 0.000000 0.000000 1.000000 "Normal"    "UN" "OBL"      1      1      1     1 100.000 "" "" "" "" "" "" "" "" "" "" "" "" "" "" "" "" "" "YES" ""     0.000000     0.000000     0.000000
     2 "4" "Closed" 1.00000 0.00000      2 100.00000 "YES"    0.00000    2.50000    2.50000    1.00000 "YES" "YES"    0.80000    0.80000   -0.50000 "NO " "None" 1.000000 "NO"      0.000000 0.000100 ""   2.8000 0.000000 1.000000 0.000000 0.000000 1.000000 "Normal"    "UN" "OBL"      1      1      1     1 100.000 "" "" "" "" "" "" "" "" "" "" "" "" "" "" "" "" "" "YES" ""     0.000000     0.000000     0.000000
    23 "1" "Closed" 1.00000 0.00000     23 100.00000 "YES"    0.00000   69.27474   77.80001   20.00000 "YES" "YES"    0.04408   23.30000  -14.00000 "NO " "None" 1.000000 "NO"      0.000000 0.000100 ""  85.6000 0.000000 1.000000 0.000000 0.000000 1.000000 "Normal"    "UN" "DFO"      1      1      1     1 100.000 "" "" "" "" "" "" "" "" "" "" "" "" "" "" "" "" "" "YES" ""     0.000000     0.000000     0.000000
    23 "10" "Closed" 1.00000 0.00000     23 100.00000 "YES"    0.00000   39.12994   45.90000    0.00000 "YES" "YES"    0.04408   13.80000   -8.30000 "NO " "None" 1.000000 "NO"      0.000000 0.000100 ""  50.5000 0.000000 1.000000 0.000000 0.000000 1.000000 "Normal"    "UN" "SUN"      1      1      1     1 100.000 "" "" "" "" "" "" "" "" "" "" "" "" "" "" "" "" "" "YES" ""     0.000000     0.000000     0.000000
    23 "2" "Closed" 1.00000 0.00000     23 100.00000 "YES"    0.00000   69.27474   77.80001   20.00000 "YES" "YES"    0.04408   23.30000  -14.00000 "NO " "None" 1.000000 "NO"      0.000000 0.000100 ""  85.6000 0.000000 1.000000 0.000000 0.000000 1.000000 "Normal"    "UN" "DFO"      1      1      1     1 100.000 "" "" "" "" "" "" "" "" "" "" "" "" "" "" "" "" "" "YES" ""     0.000000     0.000000     0.000000
    23 "3" "Closed" 1.00000 0.00000     23 100.00000 "YES"    0.00000   47.63737   51.90000   23.00000 "YES" "YES"    0.04408   15.60000   -9.40000 "NO " "None" 1.000000 "NO"      0.000000 0.000100 ""  57.1000 0.000000 1.000000 0.000000 0.000000 1.000000 "Normal"    "UN" "DFO"      1      1      1     1 100.000 "" "" "" "" "" "" "" "" "" "" "" "" "" "" "" "" "" "YES" ""     0.000000     0.000000     0.000000
    23 "4" "Closed" 1.00000 0.00000     23 100.00000 "YES"    0.00000   47.10963   51.80000   20.00000 "YES" "YES"    0.04408   15.50000   -9.30000 "NO " "None" 1.000000 "NO"      0.000000 0.000100 ""  57.0000 0.000000 1.000000 0.000000 0.000000 1.000000 "Normal"    "UN" "DFO"      1      1      1     1 100.000 "" "" "" "" "" "" "" "" "" "" "" "" "" "" "" "" "" "YES" ""     0.000000     0.000000     0.000000
    23 "5" "Closed" 1.00000 0.00000     23 100.00000 "YES"    0.00000   44.53319   51.20000    6.00000 "YES" "YES"    0.04408   15.40000   -9.20000 "NO " "None" 1.000000 "NO"      0.000000 0.000100 ""  56.3000 0.000000 1.000000 0.000000 0.000000 1.000000 "Normal"    "UN" "DFO"      1      1      1     1 100.000 "" "" "" "" "" "" "" "" "" "" "" "" "" "" "" "" "" "YES" ""     0.000000     0.000000     0.000000
    23 "6" "Closed" 1.00000 0.00000     23 100.00000 "YES"    0.00000   44.53319   51.20000    6.00000 "YES" "YES"    0.04408   15.40000   -9.20000 "NO " "None" 1.000000 "NO"      0.000000 0.000100 ""  56.3000 0.000000 1.000000 0.000000 0.000000 1.000000 "Normal"    "UN" "DFO"      1      1      1     1 100.000 "" "" "" "" "" "" "" "" "" "" "" "" "" "" "" "" "" "YES" ""     0.000000     0.000000     0.000000
    23 "7" "Closed" 1.00000 0.00000     23 100.00000 "YES"    0.00000   43.61436   47.70000   20.00000 "YES" "YES"    0.04408   14.30000   -8.60000 "NO " "None" 1.000000 "NO"      0.000000 0.000100 ""  52.5000 0.000000 1.000000 0.000000 0.000000 1.000000 "Normal"    "UN" "DFO"      1      1      1     1 100.000 "" "" "" "" "" "" "" "" "" "" "" "" "" "" "" "" "" "YES" ""     0.000000     0.000000     0.000000
    23 "8" "Closed" 1.00000 0.00000     23 100.00000 "YES"    0.00000   43.18811   47.20000   20.00000 "YES" "YES"    0.04408   14.20000   -8.50000 "NO " "None" 1.000000 "NO"      0.000000 0.000100 ""  51.9000 0.000000 1.000000 0.000000 0.000000 1.000000 "Normal"    "UN" "DFO"      1      1      1     1 100.000 "" "" "" "" "" "" "" "" "" "" "" "" "" "" "" "" "" "YES" ""     0.000000     0.000000     0.000000
    23 "9" "Closed" 1.00000 0.00000     23 100.00000 "YES"    0.00000   12.53181   14.70000    0.00000 "YES" "YES"    0.04408    4.40000   -2.60000 "NO " "None" 1.000000 "NO"      0.000000 0.000100 ""  16.2000 0.000000 1.000000 0.000000 0.000000 1.000000 "Normal"    "UN" "SUN"      1      1      1     1 100.000 "" "" "" "" "" "" "" "" "" "" "" "" "" "" "" "" "" "YES" ""     0.000000     0.000000     0.000000
    26 "1" "Closed" 1.00000 0.00000     26 100.00000 "YES"    0.00000   20.00000   20.00000    0.00000 "YES" "YES"    6.00000    6.00000   -3.60000 "NO " "None" 1.000000 "NO"      0.000000 0.000100 ""  22.0000 0.000000 1.000000 0.000000 0.000000 1.000000 "Normal"    "UN" "SUN"      1      1      1     1 100.000 "" "" "" "" "" "" "" "" "" "" "" "" "" "" "" "" "" "YES" ""     0.000000     0.000000     0.000000
    26 "2" "Closed" 1.00000 0.00000     26 100.00000 "YES"    0.00000   10.20000   10.20000    0.00000 "YES" "YES"    3.10000    3.10000   -1.90000 "NO " "None" 1.000000 "NO"      0.000000 0.000100 ""  11.2000 0.000000 1.000000 0.000000 0.000000 1.000000 "Normal"    "UN" "SUN"      1      1      1     1 100.000 "" "" "" "" "" "" "" "" "" "" "" "" "" "" "" "" "" "YES" ""     0.000000     0.000000     0.000000
    27 "1" "Closed" 1.00000 0.00000     27 100.00000 "YES"    0.00000   30.00000   30.00000    0.00000 "YES" "YES"   -5.40000    9.00000   -5.40000 "NO " "None" 1.000000 "NO"      0.000000 0.000100 ""  33.0000 0.000000 1.000000 0.000000 0.000000 1.000000 "Normal"    "UN" "WND"      1      1      1     1 100.000 "" "" "" "" "" "" "" "" "" "" "" "" "" "" "" "" "" "YES" ""     0.000000     0.000000     0.000000
    27 "2" "Closed" 1.00000 0.00000     27 100.00000 "YES"    0.00000   27.60000   27.60000    1.00000 "YES" "YES"   -5.00000    8.30000   -5.00000 "NO " "None" 1.000000 "NO"      0.000000 0.000100 ""  30.4000 0.000000 1.000000 0.000000 0.000000 1.000000 "Fixed"     "UN" "WND"      1      1      1     1 100.000 "" "" "" "" "" "" "" "" "" "" "" "" "" "" "" "" "" "YES" ""     0.000000     0.000000     0.000000
    28 "1" "Closed" 1.00000 0.00000     28 100.00000 "YES"    0.00000   46.29999   49.00000    0.00000 "YES" "YES"   -5.48675   14.70000   -8.80000 "NO " "None" 1.000000 "NO"      0.000000 0.000100 ""  53.9000 0.000000 1.000000 0.000000 0.000000 1.000000 "Normal"    "UN" "SUN"      1      1      1     1 100.000 "" "" "" "" "" "" "" "" "" "" "" "" "" "" "" "" "" "YES" ""     0.000000     0.000000     0.000000
    28 "2" "Closed" 1.00000 0.00000     28 100.00000 "YES"    0.00000   69.00000   69.00000    0.00000 "YES" "YES"   -5.48675   20.70000  -12.40000 "NO " "None" 1.000000 "NO"      0.000000 0.000100 ""  75.9000 0.000000 1.000000 0.000000 0.000000 1.000000 "Fixed"     "UN" "WND"      1      1      1     1 100.000 "" "" "" "" "" "" "" "" "" "" "" "" "" "" "" "" "" "YES" ""     0.000000     0.000000     0.000000
    33 "1" "Closed" 1.00000 0.00000     33 100.00000 "YES"    0.00000   27.60000   27.60000    0.00000 "YES" "YES"    8.30000    8.30000   -5.00000 "NO " "None" 1.000000 "NO"      0.000000 0.000100 ""  30.4000 0.000000 1.000000 0.000000 0.000000 1.000000 "Normal"    "UN" "SUN"      1      1      1     1 100.000 "" "" "" "" "" "" "" "" "" "" "" "" "" "" "" "" "" "YES" ""     0.000000     0.000000     0.000000
    34 "1" "Closed" 1.00000 0.00000     34 100.00000 "YES"    0.00000    7.22000    8.40000    2.50000 "YES" "YES"   -0.98243    2.50000   -1.50000 "NO " "None" 1.000000 "NO"      0.000000 0.000100 ""   9.2000 0.000000 1.000000 0.000000 0.000000 1.000000 "Normal"    "UN" "OBL"      1      1      1     1 100.000 "" "" "" "" "" "" "" "" "" "" "" "" "" "" "" "" "" "YES" ""     0.000000     0.000000     0.000000
    34 "2" "Closed" 1.00000 0.00000     34 100.00000 "YES"    0.00000    6.04000    8.40000    2.50000 "YES" "YES"   -0.98243    2.50000   -1.50000 "NO " "None" 1.000000 "NO"      0.000000 0.000100 ""   9.2000 0.000000 1.000000 0.000000 0.000000 1.000000 "Normal"    "UN" "OBL"      1      1      1     1 100.000 "" "" "" "" "" "" "" "" "" "" "" "" "" "" "" "" "" "YES" ""     0.000000     0.000000     0.000000
    34 "3" "Closed" 1.00000 0.00000     34 100.00000 "YES"    0.00000    6.04000    8.40000    2.50000 "YES" "YES"   -0.98243    2.50000   -1.50000 "NO " "None" 1.000000 "NO"      0.000000 0.000100 ""   9.2000 0.000000 1.000000 0.000000 0.000000 1.000000 "Normal"    "UN" "OBL"      1      1      1     1 100.000 "" "" "" "" "" "" "" "" "" "" "" "" "" "" "" "" "" "YES" ""     0.000000     0.000000     0.000000
    34 "4" "Closed" 1.00000 0.00000     34 100.00000 "YES"    0.00000    6.04000    8.40000    2.50000 "YES" "YES"   -0.98243    2.50000   -1.50000 "NO " "None" 1.000000 "NO"      0.000000 0.000100 ""   9.2000 0.000000 1.000000 0.000000 0.000000 1.000000 "Normal"    "UN" "OBL"      1      1      1     1 100.000 "" "" "" "" "" "" "" "" "" "" "" "" "" "" "" "" "" "YES" ""     0.000000     0.000000     0.000000
    34 "5" "Closed" 1.00000 0.00000     34 100.00000 "YES"    0.00000    6.00900    8.40000    2.50000 "YES" "YES"   -0.98243    2.50000   -1.50000 "NO " "None" 1.000000 "NO"      0.000000 0.000100 ""   9.2000 0.000000 1.000000 0.000000 0.000000 1.000000 "Normal"    "UN" "OBL"      1      1      1     1 100.000 "" "" "" "" "" "" "" "" "" "" "" "" "" "" "" "" "" "YES" ""     0.000000     0.000000     0.000000
    34 "6" "Closed" 1.00000 0.00000     34 100.00000 "YES"    0.00000    7.22000    8.40000    2.50000 "YES" "YES"   -0.98243    2.50000   -1.50000 "NO " "None" 1.000000 "NO"      0.000000 0.000100 ""   9.2000 0.000000 1.000000 0.000000 0.000000 1.000000 "Normal"    "UN" "OBL"      1      1      1     1 100.000 "" "" "" "" "" "" "" "" "" "" "" "" "" "" "" "" "" "YES" ""     0.000000     0.000000     0.000000
    35 "1" "Closed" 1.00000 0.00000     35 100.00000 "YES"    0.00000   58.00000   58.00000    5.00000 "YES" "YES"    0.05299   17.40000  -10.40000 "NO " "None" 1.000000 "NO"      0.000000 0.000100 ""  63.8000 0.000000 1.000000 0.000000 0.000000 1.000000 "Normal"    "UN" "OBL"      1      1      1     1 100.000 "" "" "" "" "" "" "" "" "" "" "" "" "" "" "" "" "" "YES" ""     0.000000     0.000000     0.000000
    35 "2" "Closed" 1.00000 0.00000     35 100.00000 "YES"    0.00000   28.00000   28.00000    5.00000 "YES" "YES"    0.05299    8.40000   -5.00000 "NO " "None" 1.000000 "NO"      0.000000 0.000100 ""  30.8000 0.000000 1.000000 0.000000 0.000000 1.000000 "Normal"    "UN" "OBL"      1      1      1     1 100.000 "" "" "" "" "" "" "" "" "" "" "" "" "" "" "" "" "" "YES" ""     0.000000     0.000000     0.000000
    35 "3" "Open"   1.00000 0.00000     35 100.00000 "YES"    0.00000  180.00000  180.00000   63.00000 "YES" "YES"    0.00000   54.00000  -32.40000 "NO " "None" 1.000000 "NO"      0.000000 0.000100 "" 198.0000 0.000000 1.000000 0.000000 0.000000 1.000000 "Normal"    "UN" "BIT"      1      1      1     1 100.000 "" "" "" "" "" "" "" "" "" "" "" "" "" "" "" "" "" "YES" ""     0.000000     0.000000     0.000000
    35 "4" "Closed" 1.00000 0.00000     35 100.00000 "YES"    0.00000   20.00000   20.00000    5.00000 "YES" "YES"    0.05299    6.00000   -3.60000 "NO " "None" 1.000000 "NO"      0.000000 0.000100 ""  22.0000 0.000000 1.000000 0.000000 0.000000 1.000000 "Normal"    "UN" "DFO"      1      1      1     1 100.000 "" "" "" "" "" "" "" "" "" "" "" "" "" "" "" "" "" "YES" ""     0.000000     0.000000     0.000000
    35 "5" "Closed" 1.00000 0.00000     35 100.00000 "YES"    0.00000   67.00000   85.00000   40.00000 "YES" "YES"    0.05299   25.50000  -15.30000 "NO " "None" 1.000000 "NO"      0.000000 0.000100 ""  93.5000 0.000000 1.000000 0.000000 0.000000 1.000000 "Normal"    "UN" "DFO"      1      1      1     1 100.000 "" "" "" "" "" "" "" "" "" "" "" "" "" "" "" "" "" "YES" ""     0.000000     0.000000     0.000000
    35 "6" "Open"   1.00000 0.00000     35 100.00000 "YES"    0.00000   85.00000   85.00000   40.00000 "YES" "YES"    0.00000   25.50000  -15.30000 "NO " "None" 1.000000 "NO"      0.000000 0.000100 ""  93.5000 0.000000 1.000000 0.000000 0.000000 1.000000 "Normal"    "UN" "DFO"      1      1      1     1 100.000 "" "" "" "" "" "" "" "" "" "" "" "" "" "" "" "" "" "YES" ""     0.000000     0.000000     0.000000
    35 "7" "Closed" 1.00000 0.00000     35 100.00000 "YES"    0.00000   50.00000   50.00000   10.00000 "YES" "YES"    0.05299   15.00000   -9.00000 "NO " "None" 1.000000 "NO"      0.000000 0.000100 ""  55.0000 0.000000 1.000000 0.000000 0.000000 1.000000 "Normal"    "UN" "DFO"      1      1      1     1 100.000 "" "" "" "" "" "" "" "" "" "" "" "" "" "" "" "" "" "YES" ""     0.000000     0.000000     0.000000
    35 "8" "Closed" 1.00000 0.00000     35 100.00000 "YES"    0.00000   56.20000  113.00000   42.00000 "YES" "YES"    0.05299   33.90000  -20.30000 "NO " "None" 1.000000 "NO"      0.000000 0.000100 "" 124.3000 0.000000 1.000000 0.000000 0.000000 1.000000 "Normal"    "UN" "DFO"      1      1      1     1 100.000 "" "" "" "" "" "" "" "" "" "" "" "" "" "" "" "" "" "YES" ""     0.000000     0.000000     0.000000
    36 "1" "Closed" 1.00000 0.00000     36 100.00000 "YES"    0.00000    2.00000    3.20000    2.00000 "YES" "YES"    1.00000    1.00000   -0.60000 "NO " "None" 1.000000 "NO"      0.000000 0.000100 ""   3.5000 0.000000 1.000000 0.000000 0.000000 1.000000 "Normal"    "UN" "DFO"      1      1      1     1 100.000 "" "" "" "" "" "" "" "" "" "" "" "" "" "" "" "" "" "YES" ""     0.000000     0.000000     0.000000
    36 "2" "Closed" 1.00000 0.00000     36 100.00000 "YES"    0.00000    2.10100    3.20000    2.00000 "YES" "YES"    1.00000    1.00000   -0.60000 "NO " "None" 1.000000 "NO"      0.000000 0.000100 ""   3.5000 0.000000 1.000000 0.000000 0.000000 1.000000 "Normal"    "UN" "DFO"      1      1      1     1 100.000 "" "" "" "" "" "" "" "" "" "" "" "" "" "" "" "" "" "YES" ""     0.000000     0.000000     0.000000
    36 "3" "Closed" 1.00000 0.00000     36 100.00000 "YES"    0.00000    2.00000    3.20000    2.00000 "YES" "YES"    1.00000    1.00000   -0.60000 "NO " "None" 1.000000 "NO"      0.000000 0.000100 ""   3.5000 0.000000 1.000000 0.000000 0.000000 1.000000 "Normal"    "UN" "DFO"      1      1      1     1 100.000 "" "" "" "" "" "" "" "" "" "" "" "" "" "" "" "" "" "YES" ""     0.000000     0.000000     0.000000
    36 "4" "Closed" 1.00000 0.00000     36 100.00000 "YES"    0.00000    2.48000    3.20000    2.00000 "YES" "YES"    1.00000    1.00000   -0.60000 "NO " "None" 1.000000 "NO"      0.000000 0.000100 ""   3.5000 0.000000 1.000000 0.000000 0.000000 1.000000 "Normal"    "UN" "DFO"      1      1      1     1 100.000 "" "" "" "" "" "" "" "" "" "" "" "" "" "" "" "" "" "YES" ""     0.000000     0.000000     0.000000
    37 "1" "Open"   1.00000 0.00000     37 100.00000 "YES"    0.00000  128.69999  128.69999   45.00000 "YES" "YES"    0.00000   38.60000  -23.20000 "NO " "None" 1.000000 "NO"      0.000000 0.000100 "" 141.6000 0.000000 1.000000 0.000000 0.000000 1.000000 "Normal"    "UN" "DFO"      1      1      1     1 100.000 "" "" "" "" "" "" "" "" "" "" "" "" "" "" "" "" "" "YES" ""     0.000000     0.000000     0.000000
    37 "2" "Open"   1.00000 0.00000     37 100.00000 "YES"    0.00000  128.10000  128.10000   55.00000 "YES" "YES"    0.00000   38.40000  -23.00000 "NO " "None" 1.000000 "NO"      0.000000 0.000100 "" 140.9000 0.000000 1.000000 0.000000 0.000000 1.000000 "Normal"    "UN" "DFO"      1      1      1     1 100.000 "" "" "" "" "" "" "" "" "" "" "" "" "" "" "" "" "" "YES" ""     0.000000     0.000000     0.000000
    37 "3" "Closed" 1.00000 0.00000     37 100.00000 "YES"    0.00000   58.32421   87.20000   20.00000 "YES" "YES"    5.62577   26.20000  -15.70000 "NO " "None" 1.000000 "NO"      0.000000 0.000100 ""  95.9000 0.000000 1.000000 0.000000 0.000000 1.000000 "Normal"    "UN" "DFO"      1      1      1     1 100.000 "" "" "" "" "" "" "" "" "" "" "" "" "" "" "" "" "" "YES" ""     0.000000     0.000000     0.000000
    37 "4" "Open"   1.00000 0.00000     37 100.00000 "YES"    0.00000   82.10000   82.10000   20.00000 "YES" "YES"    0.00000   24.60000  -14.80000 "NO " "None" 1.000000 "NO"      0.000000 0.000100 ""  90.3000 0.000000 1.000000 0.000000 0.000000 1.000000 "Normal"    "UN" "DFO"      1      1      1     1 100.000 "" "" "" "" "" "" "" "" "" "" "" "" "" "" "" "" "" "YES" ""     0.000000     0.000000     0.000000
    37 "5" "Closed" 1.00000 0.00000     37 100.00000 "YES"    0.00000   68.48000   78.10000   30.00000 "YES" "YES"    5.62577   23.40000  -14.00000 "NO " "None" 1.000000 "NO"      0.000000 0.000100 ""  85.9000 0.000000 1.000000 0.000000 0.000000 1.000000 "Normal"    "UN" "DFO"      1      1      1     1 100.000 "" "" "" "" "" "" "" "" "" "" "" "" "" "" "" "" "" "YES" ""     0.000000     0.000000     0.000000
    37 "6" "Open"   1.00000 0.00000     37 100.00000 "YES"    0.00000   77.90000   77.90000   20.00000 "YES" "YES"    0.00000   23.40000  -14.00000 "NO " "None" 1.000000 "NO"      0.000000 0.000100 ""  85.7000 0.000000 1.000000 0.000000 0.000000 1.000000 "Normal"    "UN" "DFO"      1      1      1     1 100.000 "" "" "" "" "" "" "" "" "" "" "" "" "" "" "" "" "" "YES" ""     0.000000     0.000000     0.000000
}
Load (BusNum,ID,Status,AGC,SMW,SMvar,IMW,IMvar,ZMW,ZMvar,DistStatus,DistMWInput,
   DistMvarInput,Interruptible,MWMax,MWMin,DistMWMax,DistMWMin,DistUnitTypeCode,
   LoadModelGroup,AreaNumber,ZoneNumber,BANumber,OwnerNumber,EMSType,EMSID,
   DataMaintainerAssign,DataMaintainerInherit,AllLabels)
{
     2 "1 " "Closed" "YES"   60.70000    0.00000    0.00000    0.00000    0.00000    0.00000 "Closed"    0.00000    0.00000 "NO "    0.00000    0.00000    0.00000    0.00000 "UN" ""      1      1      1      1 "" "" "" "YES" ""
     3 "1 " "Closed" "YES"   59.39000    0.00000    0.00000    0.00000    0.00000    0.00000 "Closed"    0.00000    0.00000 "NO "    0.00000    0.00000    0.00000    0.00000 "UN" ""      1      1      1      1 "" "" "" "YES" ""
     4 "1 " "Closed" "YES"   22.47000    0.00000    0.00000    0.00000    0.00000    0.00000 "Closed"    0.00000    0.00000 "NO "    0.00000    0.00000    0.00000    0.00000 "UN" ""      1      1      1      1 "" "" "" "YES" ""
     6 "1 " "Closed" "YES"   27.46000    0.00000    0.00000    0.00000    0.00000    0.00000 "Closed"    0.00000    0.00000 "NO "    0.00000    0.00000    0.00000    0.00000 "UN" ""      1      1      1      1 "" "" "" "YES" ""
     7 "1 " "Closed" "YES"   37.01000    0.00000    0.00000    0.00000    0.00000    0.00000 "Closed"    0.00000    0.00000 "NO "    0.00000    0.00000    0.00000    0.00000 "UN" ""      1      1      1      1 "" "" "" "YES" ""
     8 "1 " "Closed" "YES"   65.10000    0.00000    0.00000    0.00000    0.00000    0.00000 "Closed"    0.00000    0.00000 "NO "    0.00000    0.00000    0.00000    0.00000 "UN" ""      1      1      1      1 "" "" "" "YES" ""
    10 "1 " "Closed" "YES"   37.76000    0.00000    0.00000    0.00000    0.00000    0.00000 "Closed"    0.00000    0.00000 "NO "    0.00000    0.00000    0.00000    0.00000 "UN" ""      1      1      1      1 "" "" "" "YES" ""
    11 "1 " "Closed" "YES"   65.55000    0.00000    0.00000    0.00000    0.00000    0.00000 "Closed"    0.00000    0.00000 "NO "    0.00000    0.00000    0.00000    0.00000 "UN" ""      1      1      1      1 "" "" "" "YES" ""
    12 "1 " "Closed" "YES"   54.01000    0.00000    0.00000    0.00000    0.00000    0.00000 "Closed"    0.00000    0.00000 "NO "    0.00000    0.00000    0.00000    0.00000 "UN" ""      1      1      1      1 "" "" "" "YES" ""
    13 "1 " "Closed" "YES"   59.24000    0.00000    0.00000    0.00000    0.00000    0.00000 "Closed"    0.00000    0.00000 "NO "    0.00000    0.00000    0.00000    0.00000 "UN" ""      1      1      1      1 "" "" "" "YES" ""
    15 "1 " "Closed" "YES"   60.90000    0.00000    0.00000    0.00000    0.00000    0.00000 "Closed"    0.00000    0.00000 "NO "    0.00000    0.00000    0.00000    0.00000 "UN" ""      1      1      1      1 "" "" "" "YES" ""
    16 "1 " "Closed" "YES"   23.83000    0.00000    0.00000    0.00000    0.00000    0.00000 "Closed"    0.00000    0.00000 "NO "    0.00000    0.00000    0.00000    0.00000 "UN" ""      1      1      1      1 "" "" "" "YES" ""
    17 "1 " "Closed" "YES"   12.04000    0.00000    0.00000    0.00000    0.00000    0.00000 "Closed"    0.00000    0.00000 "NO "    0.00000    0.00000    0.00000    0.00000 "UN" ""      1      1      1      1 "" "" "" "YES" ""
    18 "1 " "Closed" "YES"   36.32000    0.00000    0.00000    0.00000    0.00000    0.00000 "Closed"    0.00000    0.00000 "NO "    0.00000    0.00000    0.00000    0.00000 "UN" ""      1      1      1      1 "" "" "" "YES" ""
    19 "1 " "Closed" "YES"   48.60000    0.00000    0.00000    0.00000    0.00000    0.00000 "Closed"    0.00000    0.00000 "NO "    0.00000    0.00000    0.00000    0.00000 "UN" ""      1      1      1      1 "" "" "" "YES" ""
    20 "1 " "Closed" "YES"   64.95000    0.00000    0.00000    0.00000    0.00000    0.00000 "Closed"    0.00000    0.00000 "NO "    0.00000    0.00000    0.00000    0.00000 "UN" ""      1      1      1      1 "" "" "" "YES" ""
    21 "1 " "Closed" "YES"   48.34000    0.00000    0.00000    0.00000    0.00000    0.00000 "Closed"    0.00000    0.00000 "NO "    0.00000    0.00000    0.00000    0.00000 "UN" ""      1      1      1      1 "" "" "" "YES" ""
    23 "1 " "Closed" "YES"   86.75000    0.00000    0.00000    0.00000    0.00000    0.00000 "Closed"    0.00000    0.00000 "NO "    0.00000    0.00000    0.00000    0.00000 "UN" ""      1      1      1      1 "" "" "" "YES" ""
    24 "1 " "Closed" "YES"   46.58000    0.00000    0.00000    0.00000    0.00000    0.00000 "Closed"    0.00000    0.00000 "NO "    0.00000    0.00000    0.00000    0.00000 "UN" ""      1      1      1      1 "" "" "" "YES" ""
    26 "1 " "Closed" "YES"   75.28000    0.00000    0.00000    0.00000    0.00000    0.00000 "Closed"    0.00000    0.00000 "NO "    0.00000    0.00000    0.00000    0.00000 "UN" ""      1      1      1      1 "" "" "" "YES" ""
    27 "1 " "Closed" "YES"    3.95000    0.00000    0.00000    0.00000    0.00000    0.00000 "Closed"    0.00000    0.00000 "NO "    0.00000    0.00000    0.00000    0.00000 "UN" ""      1      1      1      1 "" "" "" "YES" ""
    28 "1 " "Closed" "YES"    8.82000    0.00000    0.00000    0.00000    0.00000    0.00000 "Closed"    0.00000    0.00000 "NO "    0.00000    0.00000    0.00000    0.00000 "UN" ""      1      1      1      1 "" "" "" "YES" ""
    29 "1 " "Closed" "YES"    7.70000    0.00000    0.00000    0.00000    0.00000    0.00000 "Closed"    0.00000    0.00000 "NO "    0.00000    0.00000    0.00000    0.00000 "UN" ""      1      1      1      1 "" "" "" "YES" ""
    30 "1 " "Closed" "YES"   49.03000    0.00000    0.00000    0.00000    0.00000    0.00000 "Closed"    0.00000    0.00000 "NO "    0.00000    0.00000    0.00000    0.00000 "UN" ""      1      1      1      1 "" "" "" "YES" ""
    31 "1 " "Closed" "YES"    9.62000    0.00000    0.00000    0.00000    0.00000    0.00000 "Closed"    0.00000    0.00000 "NO "    0.00000    0.00000    0.00000    0.00000 "UN" ""      1      1      1      1 "" "" "" "YES" ""
    32 "1 " "Closed" "YES"    6.67000    0.00000    0.00000    0.00000    0.00000    0.00000 "Closed"    0.00000    0.00000 "NO "    0.00000    0.00000    0.00000    0.00000 "UN" ""      1      1      1      1 "" "" "" "YES" ""
    33 "1 " "Closed" "YES"   58.22000    0.00000    0.00000    0.00000    0.00000    0.00000 "Closed"    0.00000    0.00000 "NO "    0.00000    0.00000    0.00000    0.00000 "UN" ""      1      1      1      1 "" "" "" "YES" ""
}
Branch (BusNumFrom,BusNumTo,Circuit,BranchDeviceType,ConsolidateAllow,
   OpenOrCloseBreakersAllow,Status,StatusNormal,ByPass,MeteredBus,R,X,B,G,
   LineLength,Monitor,LimitSet,LimitMVAA,LimitMVAB,LimitMVAC,LimitMVAD,LimitMVAE,
   LimitMVAF,LimitMVAG,LimitMVAH,LimitMVAI,LimitMVAJ,LimitMVAK,LimitMVAL,
   LimitMVAM,LimitMVAN,LimitMVAO,OwnerNum1,OwnerPerc1,OwnerNum2,OwnerPerc2,
   OwnerNum3,OwnerPerc3,OwnerNum4,OwnerPerc4,OwnerNum5,OwnerPerc5,OwnerNum6,
   OwnerPerc6,OwnerNum7,OwnerPerc7,OwnerNum8,OwnerPerc8,EMSType,EMSID,EMSLineID,
   EMSCBTyp,EMSID2From,EMSID2To,DataMaintainerAssign,DataMaintainerInherit,
   AllLabels,CustomFloat:0,CustomInteger:0)
{
     1      5 "1"  "Line"        "" "" "Closed" "Closed" "NO"  "1"       0.003400  0.020913  0.008460  0.000000    0.00000 "YES" "Default"  232.8  232.8  232.8    0.0    0.0    0.0    0.0    0.0    0.0    0.0    0.0    0.0    0.0    0.0    0.0     1 100.000 "" "" "" "" "" "" "" "" "" "" "" "" "" "" "" "" "" "" "" "" "" "YES" ""     0.000000 0
     1      5 "2"  "Line"        "" "" "Closed" "Closed" "NO"  "1"       0.003400  0.020913  0.008460  0.000000    0.00000 "YES" "Default"  232.8  232.8  232.8    0.0    0.0    0.0    0.0    0.0    0.0    0.0    0.0    0.0    0.0    0.0    0.0     1 100.000 "" "" "" "" "" "" "" "" "" "" "" "" "" "" "" "" "" "" "" "" "" "YES" ""     0.000000 0
     1     22 "1"  "Line"        "" "" "Closed" "Closed" "NO"  "1"       0.003740  0.024173  0.006050  0.000000    0.00000 "YES" "Default"  177.8  177.8  177.8    0.0    0.0    0.0    0.0    0.0    0.0    0.0    0.0    0.0    0.0    0.0    0.0     1 100.000 "" "" "" "" "" "" "" "" "" "" "" "" "" "" "" "" "" "" "" "" "" "YES" ""     0.000000 0
     1     25 "1"  "Line"        "" "" "Closed" "Closed" "NO"  "1"       0.002890  0.015798  0.007710  0.000000    0.00000 "YES" "Default"  217.0  217.0  217.0    0.0    0.0    0.0    0.0    0.0    0.0    0.0    0.0    0.0    0.0    0.0    0.0     1 100.000 "" "" "" "" "" "" "" "" "" "" "" "" "" "" "" "" "" "" "" "" "" "YES" ""     0.000000 0
     1     25 "2"  "Line"        "" "" "Closed" "Closed" "NO"  "1"       0.002890  0.015798  0.007710  0.000000    0.00000 "YES" "Default"  217.0  217.0  217.0    0.0    0.0    0.0    0.0    0.0    0.0    0.0    0.0    0.0    0.0    0.0    0.0     1 100.000 "" "" "" "" "" "" "" "" "" "" "" "" "" "" "" "" "" "" "" "" "" "YES" ""     0.000000 0
     1     35 "1"  "Line"        "" "" "Closed" "Closed" "NO"  "1"       0.010800  0.041922  0.012840  0.000000    0.00000 "YES" "Default"  281.6  281.6  281.6    0.0    0.0    0.0    0.0    0.0    0.0    0.0    0.0    0.0    0.0    0.0    0.0     1 100.000 "" "" "" "" "" "" "" "" "" "" "" "" "" "" "" "" "" "" "" "" "" "YES" ""     0.000000 0
     1     35 "2"  "Line"        "" "" "Closed" "Closed" "NO"  "1"       0.010800  0.041922  0.012840  0.000000    0.00000 "YES" "Default"  281.6  281.6  281.6    0.0    0.0    0.0    0.0    0.0    0.0    0.0    0.0    0.0    0.0    0.0    0.0     1 100.000 "" "" "" "" "" "" "" "" "" "" "" "" "" "" "" "" "" "" "" "" "" "YES" ""     0.000000 0
     2      4 "1"  "Line"        "" "" "Closed" "Closed" "NO"  "2"       0.042960  0.079357  0.002570  0.000000    0.00000 "YES" "Default"   66.8   66.8   66.8    0.0    0.0    0.0    0.0    0.0    0.0    0.0    0.0    0.0    0.0    0.0    0.0     1 100.000 "" "" "" "" "" "" "" "" "" "" "" "" "" "" "" "" "" "" "" "" "" "YES" ""     0.000000 0
     2      6 "1"  "Line"        "" "" "Closed" "Closed" "NO"  "2"       0.026890  0.058600  0.003120  0.000000    0.00000 "YES" "Default"   82.0   82.0   82.0    0.0    0.0    0.0    0.0    0.0    0.0    0.0    0.0    0.0    0.0    0.0    0.0     1 100.000 "" "" "" "" "" "" "" "" "" "" "" "" "" "" "" "" "" "" "" "" "" "YES" ""     0.000000 0
     2      6 "2"  "Line"        "" "" "Closed" "Closed" "NO"  "2"       0.026890  0.058600  0.003120  0.000000    0.00000 "YES" "Default"   82.0   82.0   82.0    0.0    0.0    0.0    0.0    0.0    0.0    0.0    0.0    0.0    0.0    0.0    0.0     1 100.000 "" "" "" "" "" "" "" "" "" "" "" "" "" "" "" "" "" "" "" "" "" "YES" ""     0.000000 0
     2      7 "1"  "Line"        "" "" "Closed" "Closed" "NO"  "2"       0.027540  0.075691  0.003770  0.000000    0.00000 "YES" "Default"   77.8   77.8   77.8    0.0    0.0    0.0    0.0    0.0    0.0    0.0    0.0    0.0    0.0    0.0    0.0     1 100.000 "" "" "" "" "" "" "" "" "" "" "" "" "" "" "" "" "" "" "" "" "" "YES" ""     0.000000 0
     2     21 "1"  "Line"        "" "" "Closed" "Closed" "NO"  "2"       0.036460  0.077337  0.001730  0.000000    0.00000 "YES" "Default"   94.8   94.8   94.8    0.0    0.0    0.0    0.0    0.0    0.0    0.0    0.0    0.0    0.0    0.0    0.0     1 100.000 "" "" "" "" "" "" "" "" "" "" "" "" "" "" "" "" "" "" "" "" "" "YES" ""     0.000000 0
     2     23 "1"  "Line"        "" "" "Closed" "Closed" "NO"  "2"       0.032620  0.081030  0.001800  0.000000    0.00000 "YES" "Default"  101.3  101.3  101.3    0.0    0.0    0.0    0.0    0.0    0.0    0.0    0.0    0.0    0.0    0.0    0.0     1 100.000 "" "" "" "" "" "" "" "" "" "" "" "" "" "" "" "" "" "" "" "" "" "YES" ""     0.000000 0
     2     23 "2"  "Line"        "" "" "Closed" "Closed" "NO"  "2"       0.032620  0.081030  0.001800  0.000000    0.00000 "YES" "Default"  101.3  101.3  101.3    0.0    0.0    0.0    0.0    0.0    0.0    0.0    0.0    0.0    0.0    0.0    0.0     1 100.000 "" "" "" "" "" "" "" "" "" "" "" "" "" "" "" "" "" "" "" "" "" "YES" ""     0.000000 0
     2     23 "3"  "Line"        "" "" "Closed" "Closed" "NO"  "2"       0.032620  0.081030  0.001800  0.000000    0.00000 "YES" "Default"  101.3  101.3  101.3    0.0    0.0    0.0    0.0    0.0    0.0    0.0    0.0    0.0    0.0    0.0    0.0     1 100.000 "" "" "" "" "" "" "" "" "" "" "" "" "" "" "" "" "" "" "" "" "" "YES" ""     0.000000 0
     2     26 "1"  "Line"        "" "" "Closed" "Closed" "NO"  "2"       0.030490  0.066116  0.001860  0.000000    0.00000 "YES" "Default"   61.7   61.7   61.7    0.0    0.0    0.0    0.0    0.0    0.0    0.0    0.0    0.0    0.0    0.0    0.0     1 100.000 "" "" "" "" "" "" "" "" "" "" "" "" "" "" "" "" "" "" "" "" "" "YES" ""     0.000000 0
     2     26 "2"  "Line"        "" "" "Closed" "Closed" "NO"  "2"       0.030490  0.066116  0.001860  0.000000    0.00000 "YES" "Default"   61.7   61.7   61.7    0.0    0.0    0.0    0.0    0.0    0.0    0.0    0.0    0.0    0.0    0.0    0.0     1 100.000 "" "" "" "" "" "" "" "" "" "" "" "" "" "" "" "" "" "" "" "" "" "YES" ""     0.000000 0
     3      6 "1"  "Line"        "" "" "Closed" "Closed" "NO"  "3"       0.014780  0.036690  0.001040  0.000000    0.00000 "YES" "Default"   85.0   85.0   85.0    0.0    0.0    0.0    0.0    0.0    0.0    0.0    0.0    0.0    0.0    0.0    0.0     1 100.000 "" "" "" "" "" "" "" "" "" "" "" "" "" "" "" "" "" "" "" "" "" "YES" ""     0.000000 0
     3      6 "2"  "Line"        "" "" "Closed" "Closed" "NO"  "3"       0.014780  0.036690  0.001040  0.000000    0.00000 "YES" "Default"   85.0   85.0   85.0    0.0    0.0    0.0    0.0    0.0    0.0    0.0    0.0    0.0    0.0    0.0    0.0     1 100.000 "" "" "" "" "" "" "" "" "" "" "" "" "" "" "" "" "" "" "" "" "" "YES" ""     0.000000 0
     3     16 "1"  "Line"        "" "" "Closed" "Closed" "NO"  "3"       0.023830  0.063585  0.005040  0.000000    0.00000 "YES" "Default"   82.8   82.8   82.8    0.0    0.0    0.0    0.0    0.0    0.0    0.0    0.0    0.0    0.0    0.0    0.0     1 100.000 "" "" "" "" "" "" "" "" "" "" "" "" "" "" "" "" "" "" "" "" "" "YES" ""     0.000000 0
     3     19 "1"  "Line"        "" "" "Closed" "Closed" "NO"  "3"       0.013820  0.031229  0.005410  0.000000    0.00000 "YES" "Default"   91.6   91.6   91.6    0.0    0.0    0.0    0.0    0.0    0.0    0.0    0.0    0.0    0.0    0.0    0.0     1 100.000 "" "" "" "" "" "" "" "" "" "" "" "" "" "" "" "" "" "" "" "" "" "YES" ""     0.000000 0
     3     19 "2"  "Line"        "" "" "Closed" "Closed" "NO"  "3"       0.013820  0.031229  0.005410  0.000000    0.00000 "YES" "Default"   91.6   91.6   91.6    0.0    0.0    0.0    0.0    0.0    0.0    0.0    0.0    0.0    0.0    0.0    0.0     1 100.000 "" "" "" "" "" "" "" "" "" "" "" "" "" "" "" "" "" "" "" "" "" "YES" ""     0.000000 0
     3     19 "3"  "Line"        "" "" "Closed" "Closed" "NO"  "3"       0.013820  0.031229  0.005410  0.000000    0.00000 "YES" "Default"   91.6   91.6   91.6    0.0    0.0    0.0    0.0    0.0    0.0    0.0    0.0    0.0    0.0    0.0    0.0     1 100.000 "" "" "" "" "" "" "" "" "" "" "" "" "" "" "" "" "" "" "" "" "" "YES" ""     0.000000 0
     3     21 "1"  "Line"        "" "" "Closed" "Closed" "NO"  "3"       0.024230  0.047508  0.001520  0.000000    0.00000 "YES" "Default"   49.0   49.0   49.0    0.0    0.0    0.0    0.0    0.0    0.0    0.0    0.0    0.0    0.0    0.0    0.0     1 100.000 "" "" "" "" "" "" "" "" "" "" "" "" "" "" "" "" "" "" "" "" "" "YES" ""     0.000000 0
     4     13 "1"  "Line"        "" "" "Closed" "Closed" "NO"  "4"       0.012140  0.038486  0.001700  0.000000    0.00000 "YES" "Default"   53.2   53.2   53.2    0.0    0.0    0.0    0.0    0.0    0.0    0.0    0.0    0.0    0.0    0.0    0.0     1 100.000 "" "" "" "" "" "" "" "" "" "" "" "" "" "" "" "" "" "" "" "" "" "YES" ""     0.000000 0
     5      9 "1"  "Line"        "" "" "Closed" "Closed" "NO"  "5"       0.002290  0.012058  0.004090  0.000000    0.00000 "YES" "Default"  170.7  170.7  170.7    0.0    0.0    0.0    0.0    0.0    0.0    0.0    0.0    0.0    0.0    0.0    0.0     1 100.000 "" "" "" "" "" "" "" "" "" "" "" "" "" "" "" "" "" "" "" "" "" "YES" ""     0.000000 0
     5     14 "1"  "Line"        "" "" "Closed" "Closed" "NO"  "5"       0.005740  0.038815  0.006870  0.000000    0.00000 "YES" "Default"  162.5  162.5  162.5    0.0    0.0    0.0    0.0    0.0    0.0    0.0    0.0    0.0    0.0    0.0    0.0     1 100.000 "" "" "" "" "" "" "" "" "" "" "" "" "" "" "" "" "" "" "" "" "" "YES" ""     0.000000 0
     7      6 " 1" "Line"        "" "" "Closed" "Closed" "NO"  "7"       0.004000  0.010000  0.000960  0.000000    0.00000 "YES" "Default"   40.2   40.2   40.2    0.0    0.0    0.0    0.0    0.0    0.0    0.0    0.0    0.0    0.0    0.0    0.0     1 100.000 "" "" "" "" "" "" "" "" "" "" "" "" "" "" "" "" "" "" "" "" "" "YES" ""     0.000000 0
     7      6 " 2" "Line"        "" "" "Closed" "Closed" "NO"  "7"       0.004000  0.010000  0.000960  0.000000    0.00000 "YES" "Default"   40.2   40.2   40.2    0.0    0.0    0.0    0.0    0.0    0.0    0.0    0.0    0.0    0.0    0.0    0.0     1 100.000 "" "" "" "" "" "" "" "" "" "" "" "" "" "" "" "" "" "" "" "" "" "YES" ""     0.000000 0
     7      6 " 3" "Line"        "" "" "Closed" "Closed" "NO"  "7"       0.004000  0.010000  0.000960  0.000000    0.00000 "YES" "Default"   40.2   40.2   40.2    0.0    0.0    0.0    0.0    0.0    0.0    0.0    0.0    0.0    0.0    0.0    0.0     1 100.000 "" "" "" "" "" "" "" "" "" "" "" "" "" "" "" "" "" "" "" "" "" "YES" ""     0.000000 0
     6     11 "1"  "Line"        "" "" "Closed" "Closed" "NO"  "6"       0.019800  0.042395  0.000970  0.000000    0.00000 "YES" "Default"   89.0   89.0   89.0    0.0    0.0    0.0    0.0    0.0    0.0    0.0    0.0    0.0    0.0    0.0    0.0     1 100.000 "" "" "" "" "" "" "" "" "" "" "" "" "" "" "" "" "" "" "" "" "" "YES" ""     0.000000 0
     6     12 "1"  "Line"        "" "" "Closed" "Closed" "NO"  "6"       0.013640  0.033191  0.000660  0.000000    0.00000 "YES" "Default"   58.8   58.8   58.8    0.0    0.0    0.0    0.0    0.0    0.0    0.0    0.0    0.0    0.0    0.0    0.0     1 100.000 "" "" "" "" "" "" "" "" "" "" "" "" "" "" "" "" "" "" "" "" "" "YES" ""     0.000000 0
     6     12 "2"  "Line"        "" "" "Closed" "Closed" "NO"  "6"       0.013640  0.033191  0.000660  0.000000    0.00000 "YES" "Default"   58.8   58.8   58.8    0.0    0.0    0.0    0.0    0.0    0.0    0.0    0.0    0.0    0.0    0.0    0.0     1 100.000 "" "" "" "" "" "" "" "" "" "" "" "" "" "" "" "" "" "" "" "" "" "YES" ""     0.000000 0
     7     10 " 1" "Line"        "" "" "Closed" "Closed" "NO"  "7"       0.004000  0.010000  0.000960  0.000000    0.00000 "YES" "Default"   50.0   50.0   50.0    0.0    0.0    0.0    0.0    0.0    0.0    0.0    0.0    0.0    0.0    0.0    0.0     1 100.000 "" "" "" "" "" "" "" "" "" "" "" "" "" "" "" "" "" "" "" "" "" "YES" ""     0.000000 0
     7     13 "1"  "Line"        "" "" "Closed" "Closed" "NO"  "7"       0.009410  0.027706  0.000960  0.000000    0.00000 "YES" "Default"   40.2   40.2   40.2    0.0    0.0    0.0    0.0    0.0    0.0    0.0    0.0    0.0    0.0    0.0    0.0     1 100.000 "" "" "" "" "" "" "" "" "" "" "" "" "" "" "" "" "" "" "" "" "" "YES" ""     0.000000 0
     7     13 " 2" "Line"        "" "" "Closed" "Closed" "NO"  "7"       0.009410  0.027706  0.000960  0.000000    0.00000 "YES" "Default"   40.2   40.2   40.2    0.0    0.0    0.0    0.0    0.0    0.0    0.0    0.0    0.0    0.0    0.0    0.0     1 100.000 "" "" "" "" "" "" "" "" "" "" "" "" "" "" "" "" "" "" "" "" "" "YES" ""     0.000000 0
     7     13 " 3" "Line"        "" "" "Closed" "Closed" "NO"  "7"       0.009410  0.027706  0.000960  0.000000    0.00000 "YES" "Default"   40.2   40.2   40.2    0.0    0.0    0.0    0.0    0.0    0.0    0.0    0.0    0.0    0.0    0.0    0.0     1 100.000 "" "" "" "" "" "" "" "" "" "" "" "" "" "" "" "" "" "" "" "" "" "YES" ""     0.000000 0
     8     15 "1"  "Line"        "" "" "Closed" "Closed" "NO"  "8"       0.031390  0.075848  0.001970  0.000000    0.00000 "YES" "Default"   84.9   84.9   84.9    0.0    0.0    0.0    0.0    0.0    0.0    0.0    0.0    0.0    0.0    0.0    0.0     1 100.000 "" "" "" "" "" "" "" "" "" "" "" "" "" "" "" "" "" "" "" "" "" "YES" ""     0.000000 0
     8     19 "1"  "Line"        "" "" "Closed" "Closed" "NO"  "8"       0.036990  0.102463  0.002460  0.000000    0.00000 "YES" "Default"   90.0   90.0   90.0    0.0    0.0    0.0    0.0    0.0    0.0    0.0    0.0    0.0    0.0    0.0    0.0     1 100.000 "" "" "" "" "" "" "" "" "" "" "" "" "" "" "" "" "" "" "" "" "" "YES" ""     0.000000 0
     8     19 " 2" "Line"        "" "" "Closed" "Closed" "NO"  "8"       0.036990  0.102463  0.002460  0.000000    0.00000 "YES" "Default"   90.0   90.0   90.0    0.0    0.0    0.0    0.0    0.0    0.0    0.0    0.0    0.0    0.0    0.0    0.0     1 100.000 "" "" "" "" "" "" "" "" "" "" "" "" "" "" "" "" "" "" "" "" "" "YES" ""     0.000000 0
     9     14 "1"  "Line"        "" "" "Closed" "Closed" "NO"  "9"       0.009330  0.037848  0.010170  0.000000    0.00000 "YES" "Default"  169.3  169.3  169.3    0.0    0.0    0.0    0.0    0.0    0.0    0.0    0.0    0.0    0.0    0.0    0.0     1 100.000 "" "" "" "" "" "" "" "" "" "" "" "" "" "" "" "" "" "" "" "" "" "YES" ""     0.000000 0
    11     13 "1"  "Line"        "" "" "Closed" "Closed" "NO"  "11"      0.018440  0.047771  0.002240  0.000000    0.00000 "YES" "Default"   45.3   45.3   45.3    0.0    0.0    0.0    0.0    0.0    0.0    0.0    0.0    0.0    0.0    0.0    0.0     1 100.000 "" "" "" "" "" "" "" "" "" "" "" "" "" "" "" "" "" "" "" "" "" "YES" ""     0.000000 0
    11     15 "1"  "Line"        "" "" "Closed" "Closed" "NO"  "11"      0.023280  0.069221  0.001520  0.000000    0.00000 "YES" "Default"   48.6   48.6   48.6    0.0    0.0    0.0    0.0    0.0    0.0    0.0    0.0    0.0    0.0    0.0    0.0     1 100.000 "" "" "" "" "" "" "" "" "" "" "" "" "" "" "" "" "" "" "" "" "" "YES" ""     0.000000 0
    12     15 "1"  "Line"        "" "" "Closed" "Closed" "NO"  "12"      0.015110  0.041464  0.004140  0.000000    0.00000 "YES" "Default"   77.0   77.0   77.0    0.0    0.0    0.0    0.0    0.0    0.0    0.0    0.0    0.0    0.0    0.0    0.0     1 100.000 "" "" "" "" "" "" "" "" "" "" "" "" "" "" "" "" "" "" "" "" "" "YES" ""     0.000000 0
    12     17 "1"  "Line"        "" "" "Closed" "Closed" "NO"  "12"      0.022780  0.065341  0.002820  0.000000    0.00000 "YES" "Default"   49.9   49.9   49.9    0.0    0.0    0.0    0.0    0.0    0.0    0.0    0.0    0.0    0.0    0.0    0.0     1 100.000 "" "" "" "" "" "" "" "" "" "" "" "" "" "" "" "" "" "" "" "" "" "YES" ""     0.000000 0
    13     16 "1"  "Line"        "" "" "Closed" "Closed" "NO"  "13"      0.013090  0.032547  0.001100  0.000000    0.00000 "YES" "Default"   52.0   52.0   52.0    0.0    0.0    0.0    0.0    0.0    0.0    0.0    0.0    0.0    0.0    0.0    0.0     1 100.000 "" "" "" "" "" "" "" "" "" "" "" "" "" "" "" "" "" "" "" "" "" "YES" ""     0.000000 0
    16     18 "1"  "Line"        "" "" "Closed" "Closed" "NO"  "16"      0.015530  0.039228  0.001910  0.000000    0.00000 "YES" "Default"   51.7   51.7   51.7    0.0    0.0    0.0    0.0    0.0    0.0    0.0    0.0    0.0    0.0    0.0    0.0     1 100.000 "" "" "" "" "" "" "" "" "" "" "" "" "" "" "" "" "" "" "" "" "" "YES" ""     0.000000 0
    17     18 "1"  "Line"        "" "" "Closed" "Closed" "NO"  "17"      0.009840  0.029754  0.001450  0.000000    0.00000 "YES" "Default"   47.9   47.9   47.9    0.0    0.0    0.0    0.0    0.0    0.0    0.0    0.0    0.0    0.0    0.0    0.0     1 100.000 "" "" "" "" "" "" "" "" "" "" "" "" "" "" "" "" "" "" "" "" "" "YES" ""     0.000000 0
    19     23 "1"  "Line"        "" "" "Closed" "Closed" "NO"  "19"      0.012580  0.030449  0.001330  0.000000    0.00000 "YES" "Default"  100.3  100.3  100.3    0.0    0.0    0.0    0.0    0.0    0.0    0.0    0.0    0.0    0.0    0.0    0.0     1 100.000 "" "" "" "" "" "" "" "" "" "" "" "" "" "" "" "" "" "" "" "" "" "YES" ""     0.000000 0
    19     23 "2"  "Line"        "" "" "Closed" "Closed" "NO"  "19"      0.012580  0.030449  0.001330  0.000000    0.00000 "YES" "Default"  100.3  100.3  100.3    0.0    0.0    0.0    0.0    0.0    0.0    0.0    0.0    0.0    0.0    0.0    0.0     1 100.000 "" "" "" "" "" "" "" "" "" "" "" "" "" "" "" "" "" "" "" "" "" "YES" ""     0.000000 0
    19     23 "3"  "Line"        "" "" "Closed" "Closed" "NO"  "19"      0.012580  0.030449  0.001330  0.000000    0.00000 "YES" "Default"  100.3  100.3  100.3    0.0    0.0    0.0    0.0    0.0    0.0    0.0    0.0    0.0    0.0    0.0    0.0     1 100.000 "" "" "" "" "" "" "" "" "" "" "" "" "" "" "" "" "" "" "" "" "" "YES" ""     0.000000 0
    19     23 "4"  "Line"        "" "" "Closed" "Closed" "NO"  "19"      0.012580  0.030449  0.001330  0.000000    0.00000 "YES" "Default"  100.3  100.3  100.3    0.0    0.0    0.0    0.0    0.0    0.0    0.0    0.0    0.0    0.0    0.0    0.0     1 100.000 "" "" "" "" "" "" "" "" "" "" "" "" "" "" "" "" "" "" "" "" "" "YES" ""     0.000000 0
    20     23 "1"  "Line"        "" "" "Closed" "Closed" "NO"  "20"      0.042660  0.074844  0.001790  0.000000    0.00000 "YES" "Default"   85.8   85.8   85.8    0.0    0.0    0.0    0.0    0.0    0.0    0.0    0.0    0.0    0.0    0.0    0.0     1 100.000 "" "" "" "" "" "" "" "" "" "" "" "" "" "" "" "" "" "" "" "" "" "YES" ""     0.000000 0
    20     30 "1"  "Line"        "" "" "Closed" "Closed" "NO"  "20"      0.027800  0.068487  0.003000  0.000000    0.00000 "YES" "Default"   64.4   64.4   64.4    0.0    0.0    0.0    0.0    0.0    0.0    0.0    0.0    0.0    0.0    0.0    0.0     1 100.000 "" "" "" "" "" "" "" "" "" "" "" "" "" "" "" "" "" "" "" "" "" "YES" ""     0.000000 0
    20     32 "1"  "Line"        "" "" "Closed" "Closed" "NO"  "20"      0.014940  0.039916  0.003350  0.000000    0.00000 "YES" "Default"   52.0   52.0   52.0    0.0    0.0    0.0    0.0    0.0    0.0    0.0    0.0    0.0    0.0    0.0    0.0     1 100.000 "" "" "" "" "" "" "" "" "" "" "" "" "" "" "" "" "" "" "" "" "" "YES" ""     0.000000 0
    22     25 "1"  "Line"        "" "" "Closed" "Closed" "NO"  "22"      0.002980  0.017679  0.007750  0.000000    0.00000 "YES" "Default"  277.0  277.0  277.0    0.0    0.0    0.0    0.0    0.0    0.0    0.0    0.0    0.0    0.0    0.0    0.0     1 100.000 "" "" "" "" "" "" "" "" "" "" "" "" "" "" "" "" "" "" "" "" "" "YES" ""     0.000000 0
    22     37 "1"  "Line"        "" "" "Closed" "Closed" "NO"  "22"      0.006820  0.040841  0.011040  0.000000    0.00000 "YES" "Default"  292.9  292.9  292.9    0.0    0.0    0.0    0.0    0.0    0.0    0.0    0.0    0.0    0.0    0.0    0.0     1 100.000 "" "" "" "" "" "" "" "" "" "" "" "" "" "" "" "" "" "" "" "" "" "YES" ""     0.000000 0
    23     34 "1"  "Line"        "" "" "Closed" "Closed" "NO"  "23"      0.030140  0.091720  0.001930  0.000000    0.00000 "YES" "Default"   74.4   74.4   74.4    0.0    0.0    0.0    0.0    0.0    0.0    0.0    0.0    0.0    0.0    0.0    0.0     1 100.000 "" "" "" "" "" "" "" "" "" "" "" "" "" "" "" "" "" "" "" "" "" "YES" ""     0.000000 0
    23     34 "2"  "Line"        "" "" "Closed" "Closed" "NO"  "23"      0.030140  0.091720  0.001930  0.000000    0.00000 "YES" "Default"   74.4   74.4   74.4    0.0    0.0    0.0    0.0    0.0    0.0    0.0    0.0    0.0    0.0    0.0    0.0     1 100.000 "" "" "" "" "" "" "" "" "" "" "" "" "" "" "" "" "" "" "" "" "" "YES" ""     0.000000 0
    24     26 "1"  "Line"        "" "" "Closed" "Closed" "NO"  "24"      0.016450  0.053480  0.001350  0.000000    0.00000 "YES" "Default"   65.6   65.6   65.6    0.0    0.0    0.0    0.0    0.0    0.0    0.0    0.0    0.0    0.0    0.0    0.0     1 100.000 "" "" "" "" "" "" "" "" "" "" "" "" "" "" "" "" "" "" "" "" "" "YES" ""     0.000000 0
    24     26 "2"  "Line"        "" "" "Closed" "Closed" "NO"  "24"      0.016450  0.053480  0.001350  0.000000    0.00000 "YES" "Default"   65.6   65.6   65.6    0.0    0.0    0.0    0.0    0.0    0.0    0.0    0.0    0.0    0.0    0.0    0.0     1 100.000 "" "" "" "" "" "" "" "" "" "" "" "" "" "" "" "" "" "" "" "" "" "YES" ""     0.000000 0
    24     33 "1"  "Line"        "" "" "Closed" "Closed" "NO"  "24"      0.016900  0.033191  0.011020  0.000000    0.00000 "YES" "Default"   69.5   69.5   69.5    0.0    0.0    0.0    0.0    0.0    0.0    0.0    0.0    0.0    0.0    0.0    0.0     1 100.000 "" "" "" "" "" "" "" "" "" "" "" "" "" "" "" "" "" "" "" "" "" "YES" ""     0.000000 0
    24     36 "1"  "Line"        "" "" "Closed" "Closed" "NO"  "24"      0.018930  0.037551  0.001940  0.000000    0.00000 "YES" "Default"   48.7   48.7   48.7    0.0    0.0    0.0    0.0    0.0    0.0    0.0    0.0    0.0    0.0    0.0    0.0     1 100.000 "" "" "" "" "" "" "" "" "" "" "" "" "" "" "" "" "" "" "" "" "" "YES" ""     0.000000 0
...